scripts/data/matpower/EMT/emt_fora_ponta_umido.m
%% MATPOWER Case Format : Version 2
function mpc = emt_fora_ponta_umido
mpc.version = '2';

%%-----  Power Flow Data  -----%%
%% system MVA base
mpc.baseMVA = 100.0;
%% bus data
%    bus_i    type    Pd    Qd    Gs    Bs    area    Vm    Va    baseKV    zone    Vmax    Vmin
mpc.bus = [
	10	2	32.0	15.49	0.0	0.0	251	1.009	-18.0	992.0	1	1.05	0.95				
	11	2	65.0	31.5	0.0	0.0	251	0.99	-18.0	992.0	1	1.05	0.95				
	12	2	0.0	0.0	0.0	0.0	204	0.987	-7.699999999999999	992.0	1	1.05	0.95				
	13	2	0.0	0.0	0.0	0.0	204	0.99	-12.000000000000002	990.0	1	1.05	0.95				
	14	2	1.14	0.0	0.0	0.0	255	0.99	-28.0	992.0	1	1.05	0.95				
	16	2	0.0	0.0	0.0	0.0	352	0.987	-14.0	992.0	1	1.05	0.95				
	17	2	0.0	0.0	0.0	0.0	352	0.988	-19.0	990.0	1	1.05	0.95				
	18	2	0.0	0.0	0.0	0.0	351	1.003	13.2	992.0	1	1.05	0.95				
	19	2	0.0	0.0	0.0	0.0	351	1.007	6.3	990.0	1	1.05	0.95				
	20	2	0.0	0.0	0.0	0.0	351	1.018	1.49	992.0	1	1.05	0.95				
	21	2	0.0	0.0	0.0	0.0	472	0.99	33.2	992.0	1	1.05	0.95				
	22	2	1.8000000000000003	0.0	0.0	0.0	352	1.0	-8.4	992.0	1	1.05	0.95				
	24	2	1.2	0.0	0.0	0.0	208	0.971	-11.0	992.0	1	1.05	0.95				
	28	2	1.55	0.0	0.0	0.0	208	1.008	-14.0	992.0	1	1.05	0.95				
	30	2	0.0	0.0	0.0	0.0	254	1.002	-37.0	992.0	1	1.05	0.95				
	31	2	0.0	0.0	0.0	0.0	254	0.959	-37.0	992.0	1	1.05	0.95				
	32	2	0.0	0.0	0.0	0.0	254	1.002	-37.0	992.0	1	1.05	0.95				
	35	2	0.0	0.0	0.0	0.0	512	0.989	14.999999999999998	992.0	1	1.05	0.95				
	36	2	0.0	0.0	0.0	0.0	511	1.009	32.1	992.0	1	1.05	0.95				
	37	2	0.0	0.0	0.0	0.0	511	0.986	27.3	990.0	1	1.05	0.95				
	38	2	0.0	0.0	0.0	0.0	251	1.009	-38.0	13.8	1	1.05	0.95				
	41	2	0.0	0.0	0.0	0.0	302	1.005	-40.0	990.0	1	1.05	0.95				
	42	4	0.0	0.0	0.0	0.0	512	1.014	0.0	345.0	1	1.05	0.95				
	43	4	0.0	0.0	0.0	0.0	512	1.014	0.0	345.0	1	1.05	0.95				
	44	2	0.0	0.0	0.0	0.0	251	1.009	-38.0	13.8	1	1.05	0.95				
	46	1	0.0	0.0	0.0	-8.94	252	1.022	-39.0	345.0	1	1.05	0.95				
	47	4	0.0	0.0	0.0	0.0	302	1.009	-44.0	990.0	1	1.05	0.95				
	48	2	0.0	0.0	0.0	0.0	204	1.018	-31.0	20.0	1	1.05	0.95				
	50	2	0.0	0.0	0.0	0.0	201	0.984	-36.0	20.0	1	1.05	0.95				
	52	1	0.0	0.0	0.0	0.0	252	1.027	-39.0	345.0	1	1.05	0.95				
	53	2	0.0	0.0	0.0	0.0	252	1.027	-39.0	20.0	1	1.05	0.95				
	54	2	0.0	0.0	0.0	0.0	252	1.027	-39.0	20.0	1	1.05	0.95				
	55	1	0.0	0.0	0.0	1.364	513	1.009	9.0	230.0	1	1.05	0.95				
	56	1	0.0	0.0	0.0	0.0	201	1.014	-23.0	69.0	1	1.05	0.95				
	57	1	0.0	0.0	0.0	-180.0	201	0.955	-23.0	69.0	1	1.05	0.95				
	58	1	0.0	0.0	0.0	0.0	201	1.017	-23.0	991.0	1	1.9	0.4				
	59	1	0.0	0.0	0.0	0.0	201	1.014	-23.0	991.0	1	1.9	0.4				
	60	1	0.0	0.0	0.0	-990.0	201	0.985	-11.0	765.0	1	1.046	0.9				
	61	1	0.0	0.0	0.0	0.0	101	1.028	-7.499999999999999	500.0	1	1.1	1.0				
	62	1	0.0	0.0	0.0	-150.0	201	1.034	-27.0	765.0	1	1.046	0.9				
	63	1	0.0	0.0	0.0	-150.0	201	1.034	-27.0	765.0	1	1.046	0.9				
	64	1	0.0	0.0	0.0	-150.0	201	1.031	-27.0	765.0	1	1.046	0.9				
	65	1	0.0	0.0	0.0	-330.0	201	1.024	-21.0	765.0	1	1.046	0.9				
	66	1	0.0	0.0	0.0	0.0	101	1.03	-23.0	525.0	1	1.048	0.95				
	67	1	0.24	0.0	0.0	-180.0	201	0.954	-23.0	69.0	1	1.05	0.95				
	68	1	0.0	0.0	0.0	0.0	201	1.017	-23.0	991.0	1	1.9	0.4				
	69	1	0.0	0.0	0.0	-330.0	201	1.006	-17.0	765.0	1	1.046	0.9				
	70	1	0.0	0.0	0.0	-330.0	201	1.006	-17.0	765.0	1	1.046	0.9				
	71	1	0.0	0.0	0.0	-330.0	201	1.006	-17.0	765.0	1	1.046	0.9				
	72	1	0.0	0.0	0.0	-1320.0	201	1.033	-25.0	765.0	1	1.046	0.9				
	73	1	0.0	0.0	0.0	0.0	201	1.005	-20.0	765.0	1	1.046	0.9				
	74	1	0.0	0.0	0.0	0.0	201	1.006	-20.0	765.0	1	1.046	0.9				
	75	1	0.0	0.0	0.0	0.0	201	1.003	-20.0	765.0	1	1.046	0.9				
	76	1	0.0	0.0	0.0	-990.0	201	0.981	-29.999999999999996	765.0	1	1.046	0.9				
	77	1	0.0	0.0	0.0	0.0	202	1.041	-29.000000000000004	500.0	1	1.1	1.0				
	78	1	0.0	0.0	0.0	0.0	204	1.018	-35.0	345.0	1	1.05	0.95				
	79	1	0.0	0.0	0.0	-180.0	201	0.932	-29.000000000000004	69.0	1	1.9	0.4				
	80	1	0.0	0.0	0.0	0.0	201	0.992	-29.000000000000004	991.0	1	1.9	0.4				
	81	1	0.0	0.0	0.0	0.0	201	0.964	-36.0	991.0	1	1.9	0.4				
	82	1	0.0	0.0	0.0	0.0	204	1.019	-35.0	345.0	1	1.05	0.95				
	84	1	0.0	0.0	0.0	0.0	255	1.007	-32.0	138.0	1	1.05	0.95				
	85	1	60.0	0.0	0.0	1540.0	241	1.027	-8.9	500.0	1	1.1	1.0				
	86	1	0.0	0.0	0.0	2024.4	204	1.024	-31.0	345.0	1	1.05	0.95				
	87	1	0.0	0.0	0.0	0.0	251	1.049	-28.0	500.0	1	1.1	1.0				
	90	1	0.0	0.0	0.0	0.0	302	0.998	-40.0	345.0	1	1.05	0.95				
	91	1	0.0	0.0	0.0	0.0	302	0.994	-43.0	13.8	1	1.9	0.4				
	92	1	0.0	0.0	0.0	-73.0	511	1.063	8.22	500.0	1	1.1	1.0				
	93	1	0.0	0.0	0.0	-136.0	511	1.064	10.1	500.0	1	1.1	1.0				
	94	1	0.0	0.0	0.0	-136.0	511	1.069	9.47	500.0	1	1.1	1.0				
	95	1	0.0	0.0	0.0	0.0	302	0.994	-43.0	13.8	1	1.9	0.4				
	96	1	0.0	0.0	0.0	0.0	302	0.994	-43.0	13.8	1	1.9	0.4				
	99	1	0.0	0.0	0.0	-90.7	202	1.053	-19.0	500.0	1	1.1	1.0				
	100	1	0.0	0.0	0.0	-100.0	351	1.042	-3.9	500.0	1	1.1	1.0				
	101	1	0.0	0.0	0.0	-365.47	202	1.027	-14.0	500.0	1	1.1	1.0				
	102	1	0.0	0.0	0.0	-136.0	351	1.039	-21.0	500.0	1	1.1	1.0				
	103	1	0.0	0.0	0.0	0.0	202	1.044	-27.0	500.0	1	1.1	1.0				
	104	1	0.0	0.0	0.0	-616.0	202	1.057	-26.0	500.0	1	1.1	1.0				
	105	1	0.0	0.0	0.0	0.0	251	1.061	-25.0	500.0	1	1.1	1.0				
	106	1	0.0	0.0	0.0	-136.0	251	1.037	-31.0	500.0	1	1.1	1.0				
	107	1	0.0	0.0	0.0	0.0	251	1.033	-33.0	500.0	1	1.1	1.0				
	108	1	0.0	0.0	0.0	0.0	251	1.035	-32.0	500.0	1	1.1	1.0				
	109	1	0.0	0.0	0.0	0.0	251	1.037	-31.0	500.0	1	1.1	1.0				
	110	1	0.0	0.0	0.0	0.0	251	0.987	-38.0	991.0	1	1.9	0.4				
	112	1	0.0	0.0	0.0	-136.0	101	1.084	-32.0	500.0	1	1.1	1.0				
	113	1	0.0	0.0	0.0	-136.0	101	1.084	-32.0	500.0	1	1.1	1.0				
	114	1	0.0	0.0	0.0	0.0	101	1.084	-32.0	500.0	1	1.1	1.0				
	115	1	0.0	0.0	0.0	-81.6	202	1.03	-36.0	500.0	1	1.1	1.0				
	116	1	0.0	0.0	0.0	0.0	256	1.024	-41.0	138.0	1	1.05	0.95				
	118	1	0.0	0.0	0.0	0.0	512	0.972	3.6199999999999997	991.0	1	1.9	0.4				
	119	1	0.0	0.0	0.0	0.0	512	0.972	3.6199999999999997	13.8	1	1.9	0.4				
	120	1	0.0	0.0	0.0	0.0	352	1.005	-26.0	345.0	1	1.05	0.95				
	121	1	0.0	0.0	0.0	0.0	351	0.981	-27.0	991.0	1	1.9	0.4				
	122	1	0.0	0.0	0.0	0.0	202	1.085	-29.999999999999996	500.0	1	1.1	1.0				
	123	1	0.0	0.0	0.0	100.0	204	0.995	-31.0	345.0	1	1.05	0.95				
	124	1	0.0	0.0	0.0	0.0	202	0.986	-32.0	991.0	1	1.9	0.4				
	125	1	0.0	0.0	0.0	-87.0	202	1.025	-29.000000000000004	500.0	1	1.1	1.0				
	126	1	0.0	0.0	0.0	100.0	204	0.998	-38.0	345.0	1	1.05	0.95				
	127	1	0.0	0.0	0.0	0.0	204	1.007	-36.0	345.0	1	1.05	0.95				
	128	1	0.0	0.0	0.0	0.0	204	1.007	-36.0	345.0	1	1.05	0.95				
	129	1	0.0	0.0	0.0	0.0	204	1.007	-37.0	345.0	1	1.05	0.95				
	130	1	0.0	0.0	0.0	-87.0	202	1.025	-29.000000000000004	500.0	1	1.1	1.0				
	131	1	0.0	0.0	0.0	0.0	352	1.007	-14.0	345.0	1	1.05	0.95				
	133	1	0.0	0.0	0.0	0.0	252	1.004	-39.0	991.0	1	1.9	0.4				
	134	1	0.0	0.0	0.0	0.0	204	1.003	-12.000000000000002	345.0	1	1.05	0.95				
	135	1	0.0	0.0	0.0	0.0	252	0.98	-39.0	991.0	1	1.9	0.4				
	136	1	0.0	0.0	0.0	0.0	352	1.01	-19.0	345.0	1	1.05	0.95				
	137	1	0.0	0.0	0.0	0.0	252	0.98	-39.0	991.0	1	1.9	0.4				
	138	1	0.0	0.0	0.0	-60.0	352	1.014	-29.999999999999996	345.0	1	1.05	0.95				
	139	1	0.0	0.0	0.0	0.0	251	0.998	-34.0	991.0	1	1.9	0.4				
	140	1	0.0	0.0	0.0	162.5	252	1.011	-35.0	345.0	1	1.05	0.95				
	141	1	0.0	0.0	0.0	0.0	251	1.004	-36.0	991.0	1	1.9	0.4				
	142	1	0.0	0.0	0.0	0.0	251	1.003	-36.0	991.0	1	1.9	0.4				
	143	1	0.0	0.0	0.0	0.0	252	1.004	-39.0	991.0	1	1.9	0.4				
	144	1	0.0	0.0	0.0	0.0	252	0.998	-36.0	345.0	1	1.05	0.95				
	145	1	0.0	0.0	0.0	0.0	252	1.004	-39.0	991.0	1	1.9	0.4				
	146	1	0.0	0.0	0.0	0.0	252	1.003	-39.0	991.0	1	1.9	0.4				
	147	1	0.0	0.0	0.0	59.998000000000005	252	1.024	-39.0	345.0	1	1.05	0.95				
	148	1	0.0	0.0	0.0	0.0	252	1.021	-43.0	991.0	1	1.9	0.4				
	149	1	0.0	0.0	0.0	-60.0	302	0.997	-40.0	345.0	1	1.05	0.95				
	150	1	0.0	0.0	0.0	0.0	302	0.95	-52.0	991.0	1	1.9	0.4				
	152	1	0.0	0.0	0.0	0.0	302	1.004	-40.0	991.0	1	1.9	0.4				
	153	1	0.0	0.0	0.0	0.0	302	1.004	-40.0	991.0	1	1.9	0.4				
	154	1	0.0	0.0	0.0	20.0	302	1.038	-40.0	13.8	1	1.9	0.4				
	155	1	0.0	0.0	0.0	20.0	302	1.038	-40.0	13.8	1	1.9	0.4				
	156	1	0.0	0.0	0.0	20.0	302	1.032	-40.0	13.8	1	1.9	0.4				
	158	1	0.0	0.0	0.0	0.0	302	1.003	-40.0	991.0	1	1.9	0.4				
	159	1	0.0	0.0	0.0	0.0	252	0.98	-39.0	13.8	1	1.9	0.4				
	160	1	0.0	0.0	0.0	0.0	252	0.98	-40.0	13.8	1	1.9	0.4				
	161	1	0.0	0.0	0.0	0.0	205	1.002	-37.0	230.0	1	1.05	0.95				
	162	1	0.0	0.0	0.0	0.0	207	0.973	-34.0	991.0	1	1.9	0.4				
	163	1	0.0	0.0	0.0	-25.0	207	0.944	-34.0	13.8	1	1.9	0.4				
	164	1	0.0	0.0	0.0	0.0	352	1.006	-29.000000000000004	991.0	1	1.9	0.4				
	165	1	0.0	0.0	0.0	-25.0	352	0.974	-29.000000000000004	13.8	1	1.9	0.4				
	166	1	0.0	0.0	0.0	0.0	252	0.98	-40.0	991.0	1	1.9	0.4				
	167	1	0.0	0.0	0.0	0.0	252	0.98	-39.0	13.8	1	1.9	0.4				
	169	1	0.0	0.0	0.0	500.0	254	1.022	-38.0	138.0	1	1.05	0.95				
	170	1	0.0	0.0	0.0	0.0	359	1.026	-29.000000000000004	138.0	1	1.05	0.95				
	171	1	1.01	0.0	0.0	0.0	207	1.009	-34.0	138.0	1	1.05	0.95				
	172	1	0.0	0.0	0.0	0.0	256	1.008	-40.0	138.0	1	1.05	0.95				
	173	1	0.0	0.0	0.0	0.0	256	1.039	-39.0	138.0	1	1.05	0.95				
	174	1	0.0	0.0	0.0	150.0	258	1.019	-51.0	138.0	1	1.05	0.95				
	175	1	0.25	0.0	0.0	50.0	259	1.031	-43.0	138.0	1	1.05	0.95				
	176	1	0.0	0.0	0.0	0.0	202	0.983	-32.0	991.0	1	1.9	0.4				
	177	1	0.0	0.0	0.0	0.0	304	1.003	-50.0	138.0	1	1.05	0.95				
	178	1	0.0	0.0	0.0	0.0	254	1.003	-38.0	138.0	1	1.05	0.95				
	179	1	0.0	0.0	0.0	0.0	251	0.987	-38.0	991.0	1	1.9	0.4				
	180	1	0.0	0.0	0.0	100.0	254	1.003	-39.0	138.0	1	1.05	0.95				
	181	1	0.0	0.0	0.0	0.0	255	1.01	-32.0	138.0	1	1.05	0.95				
	182	1	0.0	0.0	0.0	0.0	255	1.006	-32.0	138.0	1	1.05	0.95				
	183	1	0.0	0.0	0.0	0.0	214	1.014	-28.0	138.0	1	1.05	0.95				
	184	1	0.0	0.0	0.0	0.0	254	1.002	-37.0	138.0	1	1.05	0.95				
	185	1	3.0	1.45	0.0	25.0	255	1.013	-28.0	138.0	1	1.05	0.95				
	186	1	0.0	0.0	0.0	0.0	202	0.983	-32.0	13.8	1	1.9	0.4				
	187	1	0.0	0.0	0.0	0.0	358	1.022	-16.0	138.0	1	1.05	0.95				
	189	1	0.0	0.0	0.0	0.0	563	1.035	6.43	991.0	1	1.9	0.4				
	190	1	0.0	0.0	0.0	0.0	208	1.013	-19.0	138.0	1	1.05	0.95				
	192	1	0.0	0.0	0.0	0.0	252	1.021	-43.0	13.8	1	1.9	0.4				
	194	1	0.0	0.0	0.0	0.0	251	1.003	-36.0	13.8	1	1.9	0.4				
	195	1	0.0	0.0	0.0	0.0	251	1.004	-36.0	13.8	1	1.9	0.4				
	196	1	0.0	0.0	0.0	-50.0	202	0.904	-32.0	13.8	1	1.9	0.4				
	197	1	0.0	0.0	0.0	0.0	251	0.998	-34.0	13.8	1	1.9	0.4				
	198	1	0.0	0.0	0.0	-50.0	351	0.9	-27.0	13.8	1	1.9	0.4				
	199	1	0.0	0.0	0.0	20.0	302	0.982	-52.0	13.8	1	1.9	0.4				
	200	1	0.0	0.0	0.0	0.0	259	1.046	-45.0	991.0	1	1.9	0.4				
	201	2	1.16	0.0	0.0	0.0	259	1.046	-46.0	992.0	1	1.05	0.95				
	202	1	0.0	0.0	0.0	0.0	259	1.046	-45.0	991.0	1	1.9	0.4				
	203	1	1.16	0.0	0.0	0.0	259	1.046	-46.0	992.0	1	1.05	0.95				
	204	1	0.0	0.0	0.0	0.0	252	1.004	-39.0	13.8	1	1.9	0.4				
	205	1	0.0	0.0	0.0	50.0	252	1.047	-39.0	13.8	1	1.9	0.4				
	206	1	0.0	0.0	0.0	50.0	252	1.048	-39.0	13.8	1	1.9	0.4				
	208	1	0.0	0.0	0.0	0.0	563	1.035	6.43	13.8	1	1.9	0.4				
	209	1	0.0	0.0	0.0	0.0	252	1.004	-39.0	13.8	1	1.9	0.4				
	210	1	0.0	0.0	0.0	-342.0	351	1.06	6.3	500.0	1	1.1	1.0				
	211	1	0.0	0.0	0.0	0.0	252	1.021	-43.0	991.0	1	1.9	0.4				
	212	1	0.0	0.0	0.0	0.0	252	1.021	-43.0	13.8	1	1.9	0.4				
	213	1	0.0	0.0	0.0	0.0	352	1.017	-4.2	345.0	1	1.05	0.95				
	214	1	0.0	0.0	0.0	0.0	351	1.018	-4.2	991.0	1	1.9	0.4				
	216	1	0.0	0.0	0.0	0.0	352	1.015	-4.4	345.0	1	1.05	0.95				
	217	1	0.0	0.0	0.0	-96.0	352	1.01	6.48	345.0	1	1.05	0.95				
	218	1	0.0	0.0	0.0	0.0	512	0.987	6.53	345.0	1	1.05	0.95				
	219	1	0.0	0.0	0.0	-60.0	562	1.0	14.4	345.0	1	1.05	0.95				
	220	1	0.0	0.0	0.0	0.0	512	1.02	9.73	345.0	1	1.05	0.95				
	221	1	0.0	0.0	0.0	0.0	564	1.036	6.73	34.5	1	1.05	0.95				
	222	1	0.0	0.0	0.0	0.0	562	1.004	11.7	991.0	1	1.9	0.4				
	223	1	0.0	0.0	0.0	0.0	512	0.971	3.4800000000000004	991.0	1	1.9	0.4				
	224	1	0.0	0.0	0.0	0.0	512	0.97	3.22	991.0	1	1.9	0.4				
	225	1	0.0	0.0	0.0	0.0	353	1.016	7.12	230.0	1	1.05	0.95				
	226	1	0.0	0.0	0.0	0.0	513	0.998	3.91	230.0	1	1.05	0.95				
	227	1	0.0	0.0	0.0	0.0	563	1.002	11.9	230.0	1	1.05	0.95				
	228	1	0.0	0.0	0.0	0.0	563	1.003	12.2	230.0	1	1.05	0.95				
	229	1	0.0	0.0	0.0	27.699999999999996	513	1.008	9.0	230.0	1	1.05	0.95				
	230	1	0.0	0.0	0.0	149.99	513	1.003	27.3	230.0	1	1.05	0.95				
	231	1	0.0	0.0	0.0	-45.0	513	1.013	9.21	230.0	1	1.05	0.95				
	232	1	0.0	0.0	0.0	0.0	562	1.004	11.7	13.8	1	1.9	0.4				
	233	1	0.0	0.0	0.0	-283.0	561	1.038	17.8	500.0	1	1.1	1.0				
	234	1	0.0	0.0	0.0	150.0	562	1.003	15.300000000000002	345.0	1	1.05	0.95				
	235	1	0.0	0.0	0.0	-272.0	511	1.035	27.3	500.0	1	1.1	1.0				
	236	1	0.8100000000000002	0.0	0.0	0.0	564	1.014	11.4	138.0	1	1.05	0.95				
	237	1	0.0	0.0	0.0	0.0	564	0.998	13.4	138.0	1	1.05	0.95				
	238	1	0.13	0.0	0.0	-15.0	517	1.004	7.69	138.0	1	1.05	0.95				
...
];

%% generator data
%    bus    Pg    Qg    Qmax    Qmin    Vg    mBase    status    Pmax    Pmin    Pc1    Pc2    Qc1min    Qc1max    Qc2min    Qc2max    ramp_agc    ramp_10    ramp_30    ramp_q    apf
mpc.gen = [
	10251	5.5	0.0	0.0	0.0	1.011	100.0	0	99999.0	0.0															
	8989	76.5	-6.07	39.5	-39.5	0.999	100.0	1	99999.0	0.0															
	9682	0.0	0.0	0.0	0.0	1.01	100.0	1	99999.0	0.0															
	1863	25.0	-5.12	8.6	-8.6	1.026	100.0	1	30.0	0.0															
	2631	5.3	0.0	0.0	0.0	1.001	100.0	0	99999.0	0.0															
	7064	1603.0	507.1000000000001	825.6999999999999	-825.0	1.021	100.0	1	1729.0	0.0															
	17	0.0	-29.299999999999997	80.0	-160.0	0.988	100.0	1	99999.0	0.0															
	6057	32.5	-1.29	37.2	-37.2	1.0	100.0	1	32.5	0.0															
	4335	4.1	0.0	0.0	0.0	1.017	100.0	0	99999.0	0.0															
	5805	27.0	-0.663	14.400000000000002	-14.400000000000002	0.999	100.0	1	27.0	0.0															
	6423	0.0	0.0	0.0	0.0	1.003	100.0	1	99999.0	0.0															
	14	118.0	-23.1	100.0	-100.0	0.99	100.0	1	222.00000000000003	0.0															
	510	816.0	-155.0	360.0	-360.0	0.983	100.0	1	1540.0	0.0															
	3963	135.0	-58.5	180.0	-110.00000000000001	0.995	100.0	1	291.0	0.0															
	21	177.0	7.807	84.0	-80.0	0.99	100.0	1	216.0	0.0															
	871	4.0	0.0	0.0	0.0	1.002	100.0	0	99999.0	0.0															
	6016	5.7	-2.44	7.6	-7.6	1.01	100.0	1	99999.0	0.0															
	6598	6.1	0.0	0.0	0.0	0.985	100.0	1	99999.0	0.0															
	2276	10.2	0.0	0.0	0.0	1.008	100.0	1	99999.0	0.0															
	8746	6.7	0.0842	9.0	-9.0	0.994	100.0	1	99999.0	0.0															
	751	56.99999999999999	-6.959999999999999	50.0	-50.0	1.008	100.0	1	108.0	0.0															
	1070	641.0	116.10000000000001	210.9	-210.0	1.028	100.0	1	855.1999999999999	0.0															
	3749	30.0	-5.99	14.499999999999998	-14.499999999999998	0.991	100.0	1	30.0	0.0															
	8129	9.1	-3.2	14.3	-12.5	1.003	100.0	1	99999.0	0.0															
	7199	19.3	-1.94	26.8	-26.8	1.001	100.0	1	99999.0	0.0															
	1166	57.99999999999999	6.067	42.0	-30.0	1.005	100.0	1	129.0	0.0															
	2863	86.0	19.52	44.15	-44.1	1.003	100.0	1	190.0	0.0															
	9126	0.0	0.0	0.0	0.0	1.01	100.0	1	99999.0	0.0															
	8376	72.0	-1.7399999999999998	103.1	-81.3	0.995	100.0	1	72.0	0.0															
	5051	180.0	-45.8	125.0	-120.0	1.005	100.0	1	229.99999999999997	0.0															
	6164	52.5	-2.47	49.2	-49.2	0.997	100.0	1	99999.0	0.0															
	8768	99.4	-5.61	36.3	-36.3	0.998	100.0	1	99999.0	0.0															
	3744	17.0	-4.34	10.32	-10.3	0.984	100.0	1	32.01	0.0															
	6129	21.0	-4.97	19.6	-19.6	1.004	100.0	1	99999.0	0.0															
	1704	4.7	0.4075	2.1	-1.4	1.011	100.0	1	7.8	0.0															
	9598	1.5	0.0	0.0	0.0	1.002	100.0	0	99999.0	0.0															
	6133	46.6	0.0	0.0	0.0	1.114	100.0	0	99999.0	0.0															
	8267	3.0	-0.036	2.0	-2.0	1.001	100.0	1	3.0	0.0															
	7930	139.4	-15.1	66.5	-66.5	1.002	100.0	1	99999.0	0.0															
	10232	4.0	0.0	0.0	0.0	0.993	100.0	0	99999.0	0.0															
	1023	0.4	0.0	0.0	0.0	0.97	100.0	0	99999.0	0.0															
	3969	0.0	0.0	0.0	0.0	1.006	100.0	1	99999.0	0.0															
	7916	24.3	-3.5000000000000004	8.8	-15.299999999999999	1.0	100.0	1	99999.0	0.0															
	7932	134.9	-13.699999999999998	62.4	-62.4	1.002	100.0	1	99999.0	0.0															
	1566	18.4	0.0	0.0	0.0	1.022	100.0	0	99999.0	0.0															
	315	0.0	0.3091	30.0	-15.0	1.005	100.0	1	99999.0	0.0															
	841	0.4	0.0	0.0	0.0	1.003	100.0	0	99999.0	0.0															
	4802	11.0	-1.6099999999999999	8.1	-8.1	1.025	100.0	1	19.0	0.0															
	984	8.0	-0.203	3.6000000000000005	-5.0	0.996	100.0	1	11.4	0.0															
	9451	0.0	0.0	0.0	0.0	0.994	100.0	1	99999.0	0.0															
	9769	45.0	0.0	0.0	0.0	0.985	100.0	1	99999.0	0.0															
	3104	0.0	0.0	0.0	0.0	0.937	100.0	1	99999.0	0.0															
	7246	35.5	0.2	0.0	0.0	1.004	100.0	0	99999.0	0.0															
	1176	56.00000000000001	2.541	26.0	-33.0	0.991	100.0	1	125.0	0.0															
	8727	31.5	-20.8	48.0	-48.0	0.995	100.0	1	99999.0	0.0															
	8911	0.0	0.0	0.0	0.0	0.998	100.0	1	99999.0	0.0															
	6589	0.0	0.0	0.0	0.0	1.013	100.0	1	99999.0	0.0															
	10144	0.0	0.0	0.0	0.0	1.021	100.0	1	99999.0	0.0															
	2733	5.8	0.0	0.0	0.0	1.006	100.0	0	99999.0	0.0															
	5803	14.800000000000002	0.4	0.0	0.0	1.106	100.0	0	99999.0	0.0															
	9067	0.7	0.0	0.0	0.0	0.985	100.0	0	99999.0	0.0															
	9734	9.0	-1.4	-1.4	-1.4	1.012	100.0	1	99999.0	0.0															
	2918	9.5	-0.638	7.000000000000001	-7.000000000000001	1.0	100.0	1	18.6	0.0															
	4168	0.0	0.0	0.0	0.0	1.011	100.0	1	99999.0	0.0															
	2917	6.0	-4.31	9.5	-9.5	1.019	100.0	1	19.0	0.0															
	4010	0.9000000000000001	0.0	0.0	0.0	0.994	100.0	0	99999.0	0.0															
	44322	0.0	0.0	0.0	0.0	0.954	100.0	1	99999.0	0.0															
	1774	1.7000000000000002	0.20679999999999998	0.9000000000000001	-0.6	0.979	100.0	1	13.200000000000001	0.0															
	6073	44.5	-10.6	122.09999999999998	-122.0	1.0	100.0	1	44.5	0.0															
	1189	0.5	0.0	0.0	0.0	1.005	100.0	0	99999.0	0.0															
	7206	450.0	-33.9	171.0	-171.0	1.009	100.0	1	900.0	0.0															
	9768	50.0	0.0	0.0	0.0	0.995	100.0	1	99999.0	0.0															
	6742	21.0	-5.35	19.6	-19.6	1.005	100.0	1	99999.0	0.0															
	44323	0.0	0.0	0.0	0.0	0.954	100.0	1	99999.0	0.0															
	1501	52.0	3.5000000000000004	44.0	-44.0	0.971	100.0	1	90.0	0.0															
	4834	26.5	-1.53	12.8	-12.8	1.005	100.0	1	28.999999999999996	0.0															
	1594	62.0	10.79	37.2	-40.0	0.986	100.0	1	117.8	0.0															
	2601	14.2	3.694	7.6	-7.6	0.972	100.0	1	15.8	0.0															
	4061	23.6	0.0	0.0	0.0	0.986	100.0	0	99999.0	0.0															
	6074	21.5	-2.69	17.5	-25.1	0.999	100.0	1	21.5	0.0															
	4157	0.0	0.0	0.0	0.0	0.998	100.0	1	99999.0	0.0															
	7509	6.3	0.3525	3.1	-2.1	1.023	100.0	1	6.3	0.0															
	922	0.0	0.0	0.0	0.0	0.99	100.0	1	99999.0	0.0															
	8607	13.5	-7.739999999999999	25.900000000000002	-25.900000000000002	1.001	100.0	1	99999.0	0.0															
	9784	22.0	-2.11	13.5	-8.2	1.004	100.0	1	22.0	0.0															
	8015	9.4	-2.23	13.100000000000001	-13.100000000000001	1.003	100.0	1	9.4	0.0															
	10119	36.0	-13.4	48.0	-48.0	0.999	100.0	1	99999.0	0.0															
	8724	29.5	-24.7	45.6	-45.6	1.012	100.0	1	99999.0	0.0															
	8071	19.2	-5.89	37.0	-37.0	1.0	100.0	1	19.2	0.0															
	5183	22.1	0.0	0.0	0.0	1.139	100.0	0	99999.0	0.0															
	6492	15.5	0.0	0.0	0.0	0.998	100.0	0	99999.0	0.0															
	3525	0.0	0.0	0.0	0.0	0.999	100.0	1	99999.0	0.0															
	8612	30.0	9.869	26.700000000000003	-19.3	0.995	100.0	1	32.82	0.0															
	5744	15.2	0.0101	22.1	-22.1	0.998	100.0	1	15.2	0.0															
	3465	10.3	0.0	0.0	0.0	0.981	100.0	0	99999.0	0.0															
	8741	90.3	-0.771	181.0	-138.0	1.0	100.0	1	99999.0	0.0															
	9582	0.0	0.0	0.0	0.0	0.997	100.0	1	99999.0	0.0															
	4525	78.0	5.681	47.6	-74.0	0.99	100.0	1	95.2	0.0															
	6711	19.3	-6.49	26.5	-26.5	0.999	100.0	1	19.3	0.0															
	6372	29.100000000000005	-9.19	0.0	-26.5	0.978	100.0	1	29.100000000000005	0.0															
	4073	1.4	0.0	0.0	0.0	0.995	100.0	0	99999.0	0.0															
	9328	3.1	0.0	0.0	0.0	1.026	100.0	0	99999.0	0.0															
	3524	0.0	0.0	0.0	0.0	0.999	100.0	1	99999.0	0.0															
	8686	16.1	-0.529	15.2	-15.2	1.0	100.0	1	99999.0	0.0															
	1014	0.0	0.0	0.0	0.0	0.961	100.0	1	99999.0	0.0															
	4692	1.3	-0.121	0.8	-0.8	1.01	100.0	1	1.3	0.0															
	4520	144.0	-7.870000000000001	60.0	-57.9	0.999	100.0	1	176.1	0.0															
	5078	36.7	-13.600000000000001	34.5	-34.5	1.008	100.0	1	36.7	0.0															
	1528	0.3	0.0	0.0	0.0	0.992	100.0	0	99999.0	0.0															
	6347	0.0	-4.29	30.0	-15.0	1.018	100.0	1	99999.0	0.0															
	8651	10.9	-3.7699999999999996	23.2	-21.9	1.005	100.0	1	99999.0	0.0															
	2716	7.5	0.0	0.0	0.0	1.0	100.0	0	99999.0	0.0															
	2851	1.7000000000000002	0.0	0.0	0.0	1.007	100.0	0	99999.0	0.0															
	4631	21.0	-3.8	10.2	-10.2	0.998	100.0	1	24.0	0.0															
	526	46.0	-10.7	52.0	-52.0	0.993	100.0	1	86.0	0.0															
	5593	5.0	0.0	0.0	0.0	1.069	100.0	0	99999.0	0.0															
	5218	0.0	0.0	0.0	0.0	0.978	100.0	1	99999.0	0.0															
	6313	17.0	0.0	0.0	0.0	1.094	100.0	0	99999.0	0.0															
	4255	0.0	0.0	0.0	0.0	0.972	100.0	1	99999.0	0.0															
	1707	0.2	-0.1	0.2	-0.1	1.006	100.0	1	0.2	0.0															
	516	74.0	30.43	42.0	-42.0	1.024	100.0	1	140.8	0.0															
	6597	11.8	-0.013	7.200000000000001	-7.200000000000001	0.989	100.0	1	22.5	0.0															
	3162	2.6	-0.8	0.0	0.0	0.987	100.0	0	99999.0	0.0															
	9558	1.4	0.1	0.0	0.0	1.058	100.0	0	99999.0	0.0															
	9455	50.0	0.0	0.0	0.0	0.998	100.0	1	99999.0	0.0															
	9732	9.0	-1.4	-1.4	-1.4	1.013	100.0	1	99999.0	0.0															
	5653	20.9	0.0	0.0	0.0	1.117	100.0	0	99999.0	0.0															
	3455	0.8	0.1	0.0	0.0	1.048	100.0	0	99999.0	0.0															
	3547	15.0	0.0	0.0	0.0	1.013	100.0	1	99999.0	0.0															
	5032	0.0	0.0	0.0	0.0	0.98	100.0	1	99999.0	0.0															
	10157	8.0	-3.15	9.0	-9.0	1.0	100.0	1	18.0	0.0															
	4827	8.0	2.203	5.0	-5.0	1.0	100.0	1	8.0	0.0															
	4489	630.0	82.0	338.8	-272.0	1.007	100.0	1	700.0	0.0															
	32	0.0	0.0	0.0	0.0	1.002	100.0	1	99999.0	0.0															
	1181	0.0	0.0	0.0	0.0	0.987	100.0	1	99999.0	0.0															
	8309	21.1	-1.5	19.9	-19.9	1.0	100.0	1	99999.0	0.0															
	8485	11.5	-1.32	11.9	-11.9	1.003	100.0	1	99999.0	0.0															
	340	0.6	0.0	0.0	0.0	1.029	100.0	0	99999.0	0.0															
	6342	96.0	19.5	0.0	0.0	1.016	100.0	0	99999.0	0.0															
	6618	7.8	-1.51	10.4	-10.4	1.003	100.0	1	7.8	0.0															
	7340	0.4	0.0	0.0	0.0	1.003	100.0	0	99999.0	0.0															
	2335	0.0	0.0	0.0	0.0	1.014	100.0	1	99999.0	0.0															
	3783	16.0	0.0	0.0	0.0	1.053	100.0	0	99999.0	0.0															
	4878	2.5	0.0	0.0	0.0	1.008	100.0	0	99999.0	0.0															
	836	14.2	0.0	0.0	0.0	0.995	100.0	0	99999.0	0.0															
	9923	2.9	0.0	0.0	0.0	0.975	100.0	0	99999.0	0.0															
	6593	0.0	0.0	0.0	0.0	1.001	100.0	1	99999.0	0.0															
	37	0.0	0.0	0.0	0.0	0.986	100.0	1	99999.0	0.0															
	2031	23.0	3.082	14.400000000000002	-15.6	1.033	100.0	1	44.4	0.0															
	4403	7.6	-1.32	6.4399999999999995	-6.4399999999999995	1.0	100.0	1	7.6	0.0															
	2449	36.5	0.0	0.0	0.0	1.051	100.0	0	99999.0	0.0															
	7072	30.0	0.0	0.0	0.0	1.031	100.0	0	99999.0	0.0															
	10012	43.2	0.0	0.0	0.0	1.085	100.0	1	99999.0	0.0															
	5012	0.0	0.0	0.0	0.0	1.032	100.0	1	99999.0	0.0															
	2254	1.1	0.0	0.0	0.0	0.932	100.0	1	99999.0	0.0															
	4136	0.0	0.0	0.0	0.0	1.017	100.0	1	99999.0	0.0															
	4190	0.0	0.0	0.0	0.0	1.003	100.0	1	99999.0	0.0															
	10314	6.800000000000001	0.0	0.0	0.0	0.988	100.0	0	99999.0	0.0															
	4911	6.5	0.3023	3.15	-2.1	0.997	100.0	1	6.5	0.0															
	513	278.0	-49.6	144.0	-144.0	0.998	100.0	1	525.0	0.0															
	2818	11.8	0.0	0.0	0.0	1.026	100.0	0	99999.0	0.0															
	2622	2.1	0.0	0.0	0.0	1.001	100.0	0	99999.0	0.0															
	9100	59.0	65.83	120.0	-120.0	1.015	100.0	1	160.0	0.0															
	4788	4.0	0.048	2.42	-1.6	1.009	100.0	1	5.0	0.0															
	5363	3.7000000000000006	0.0	0.0	0.0	1.025	100.0	0	99999.0	0.0															
	806	92.0	-12.9	57.99999999999999	-57.99999999999999	0.946	100.0	1	122.0	0.0															
	2977	18.0	0.0	0.0	0.0	1.085	100.0	0	99999.0	0.0															
	4698	2.5	-0.004	1.5	-1.5	0.995	100.0	1	2.5	0.0															
	1155	225.0	26.32	122.0	-120.0	1.0	100.0	1	500.0	0.0															
	44075	0.0	24.17	100.0	-70.0	1.007	100.0	1	99999.0	0.0															
	3563	0.0	0.0	0.0	0.0	1.037	100.0	1	99999.0	0.0															
	9948	3.0	-0.3	-0.3	-0.3	1.034	100.0	1	99999.0	0.0															
	5522	53.0	-0.012	37.0	-40.0	0.996	100.0	1	63.5	0.0															
	8229	8.8	-12.8	0.0	0.0	0.998	100.0	0	99999.0	0.0															
	921	266.0	21.96	124.0	-90.0	0.997	100.0	1	355.0	0.0															
	6812	10.0	0.0	0.0	0.0	1.054	100.0	1	99999.0	0.0															
	2350	18.0	0.0	0.0	0.0	0.958	100.0	0	99999.0	0.0															
	5771	0.0	0.0	0.0	0.0	1.002	100.0	1	99999.0	0.0															
	304	206.99999999999997	22.78	60.0	-60.0	0.978	100.0	1	390.0	0.0															
	6688	9.5	-0.528	9.0	-9.0	1.002	100.0	1	9.5	0.0															
	6422	1337.0	43.33	420.0	-420.0	1.0	100.0	1	1400.0	0.0															
	6550	13.600000000000001	-2.41	17.9	-17.9	1.0	100.0	1	13.600000000000001	0.0															
	809	0.0	-12.1	164.7	-250.0	0.98	100.0	1	99999.0	0.0															
	8904	78.8	42.36	96.0	-60.0	0.985	100.0	1	108.0	0.0															
	1125	9.5	0.0	0.0	0.0	1.004	100.0	1	99999.0	0.0															
	2803	2.7	0.0	0.0	0.0	1.026	100.0	0	99999.0	0.0															
	1284	1.8000000000000003	0.0	0.0	0.0	0.916	100.0	0	99999.0	0.0															
	505	94.0	10.37	72.0	-72.0	0.985	100.0	1	177.0	0.0															
	4222	0.0	0.0	0.0	0.0	1.008	100.0	1	99999.0	0.0															
	5463	11.5	0.0	0.0	0.0	1.078	100.0	0	99999.0	0.0															
	8442	35.2	-2.45	47.8	-35.8	1.003	100.0	1	99999.0	0.0															
	4117	0.0	0.0	0.0	0.0	1.033	100.0	1	99999.0	0.0															
	4691	0.8	-0.32	0.32	-0.32	1.005	100.0	1	0.8	0.0															
	8080	9.6	-3.08	18.5	-18.5	1.003	100.0	1	9.6	0.0															
	4513	1.9	0.0	0.0	0.0	0.987	100.0	0	99999.0	0.0															
	6424	1414.0	-41.7	472.0	-472.0	0.99	100.0	1	1560.0	0.0															
	4710	0.5	0.0	0.0	0.0	0.986	100.0	0	99999.0	0.0															
	6317	28.999999999999996	5.9	0.0	0.0	1.004	100.0	0	99999.0	0.0															
	3957	2.9	0.0	0.0	0.0	1.032	100.0	0	99999.0	0.0															
	5957	167.4	-45.0	76.6	-76.6	1.024	100.0	1	167.4	0.0															
...
];

%% branch data
%    f_bus    t_bus    r    x    b    rateA    rateB    rateC    ratio    angle    status    angmin    angmax
mpc.branch = [
	3184	23198	0.0	0.0001	0.0	89.0	104.0	89.0	0	0	0	-59.99999999999999	59.99999999999999								
	270	1600	0.0006	0.0040999999999999995	0.00493	478.0	602.0	478.0	0	0	1	-59.99999999999999	59.99999999999999								
	8593	8596	0.0	0.0001	0.0	150.0	150.0	150.0	0	0	1	-59.99999999999999	59.99999999999999								
	22469	21949	0.005941999999999999	0.01533	0.004118	80.0	108.0	80.0	0	0	1	-59.99999999999999	59.99999999999999								
	1015	2886	0.0084	0.0414	0.07766	206.99999999999997	206.99999999999997	206.99999999999997	0	0	1	-59.99999999999999	59.99999999999999								
	7639	17639	0.0015	0.003872	0.000962	139.0	163.0	139.0	0	0	1	-59.99999999999999	59.99999999999999								
	8792	8793	0.005	0.04	0.036000000000000004	0.0	0.0	0.0	0	0	1	-59.99999999999999	59.99999999999999								
	251	260	0.031676	0.065799	0.015889	96.0	120.0	96.0	0	0	1	-59.99999999999999	59.99999999999999								
	1903	4302	0.004462	0.01048	0.0028000000000000004	139.0	163.0	139.0	0	0	1	-59.99999999999999	59.99999999999999								
	6407	8059	0.0053	0.0298	0.0538	0.0	0.0	0.0	0	0	1	-59.99999999999999	59.99999999999999								
	103	609	0.0006	0.00946	0.7626000000000001	1855.0	2337.0	1855.0	0	0	1	-59.99999999999999	59.99999999999999								
	1872	1142	0.006999999999999999	0.0248	0.00662	146.0	186.0	186.0	0	0	1	-59.99999999999999	59.99999999999999								
	7304	7593	0.0026	0.0368	5.3969000000000005	2728.0	2728.0	83.0	0	0	1	-59.99999999999999	59.99999999999999								
	652	3522	0.024135	0.11117	0.0325	114.99999999999999	159.0	114.99999999999999	0	0	1	-59.99999999999999	59.99999999999999								
	9329	43229	0.0	1.0e-5	0.0	0.0	0.0	0.0	0	0	1	-59.99999999999999	59.99999999999999								
	2315	8105	0.0241	0.0602	0.015569999999999999	103.0	129.0	69.0	0	0	1	-59.99999999999999	59.99999999999999								
	4284	22678	0.002233	0.00529	0.0014000000000000002	139.0	163.0	139.0	0	0	1	-59.99999999999999	59.99999999999999								
	4297	2335	0.00109	0.00247	0.00066	101.0	144.0	101.0	0	0	1	-59.99999999999999	59.99999999999999								
	8206	5913	0.005	0.04	0.036000000000000004	0.0	0.0	0.0	0	0	1	-59.99999999999999	59.99999999999999								
	270	1457	0.0001	0.0007000000000000001	0.00018999999999999998	239.0	301.0	239.0	0	0	1	-59.99999999999999	59.99999999999999								
	3193	22008	0.013894	0.036421	0.00181	89.0	126.0	89.0	0	0	1	-59.99999999999999	59.99999999999999								
	2707	2745	0.043	0.1524	0.0025	72.0	72.0	72.0	0	0	1	-59.99999999999999	59.99999999999999								
	1607	1636	0.00404	0.02261	0.006535	153.0	194.0	153.0	0	0	1	-59.99999999999999	59.99999999999999								
	3876	4196	0.17329999999999998	0.26899999999999996	0.0039000000000000003	33.0	40.0	33.0	0	0	1	-59.99999999999999	59.99999999999999								
	22558	3837	0.0055000000000000005	0.014190000000000001	0.003526	98.0	106.0	150.0	0	0	1	-59.99999999999999	59.99999999999999								
	2388	2374	0.147	0.41609999999999997	0.006750000000000001	16.0	16.0	16.0	0	0	1	-59.99999999999999	59.99999999999999								
	9705	2401	0.011000000000000001	0.0546	0.001558	76.0	76.0	76.0	0	0	1	-59.99999999999999	59.99999999999999								
	849	10332	0.044509999999999994	0.09533	0.02241	56.00000000000001	96.0	96.0	0	0	1	-59.99999999999999	59.99999999999999								
	612	615	0.005617	0.031248	0.1041	325.0	447.0	447.0	0	0	1	-59.99999999999999	59.99999999999999								
	9537	821	0.0046	0.0239	0.0473	276.0	276.0	276.0	0	0	1	-59.99999999999999	59.99999999999999								
	4361	4005	0.015354000000000001	0.041127000000000004	0.010085	180.0	180.0	180.0	0	0	1	-59.99999999999999	59.99999999999999								
	4641	4643	0.066	0.1759	0.0421	94.0	118.0	94.0	0	0	1	-59.99999999999999	59.99999999999999								
	5181	5271	0.00781	0.05589	0.21114	637.0	750.0	637.0	0	0	1	-59.99999999999999	59.99999999999999								
	767	768	0.00223	0.014419999999999999	0.00321	155.0	180.0	155.0	0	0	1	-59.99999999999999	59.99999999999999								
	1692	1683	0.001138	0.006574	0.085191	210.0	250.0	89.0	0	0	1	-59.99999999999999	59.99999999999999								
	104	598	0.00075	0.0115	0.9890000000000001	1855.0	2252.0	1855.0	0	0	1	-59.99999999999999	59.99999999999999								
	2656	2902	0.016	0.043899999999999995	0.009559999999999999	121.0	121.0	121.0	0	0	1	-59.99999999999999	59.99999999999999								
	2701	10193	0.030600000000000002	0.0753	0.0204	143.0	143.0	143.0	0	0	1	-59.99999999999999	59.99999999999999								
	659	21915	0.004056000000000001	0.010476000000000001	0.0028000000000000004	80.0	108.0	80.0	0	0	1	-59.99999999999999	59.99999999999999								
	784	321	0.0362	0.10439999999999999	0.0281	127.0	136.0	127.0	0	0	1	-59.99999999999999	59.99999999999999								
	2389	2413	0.0451	0.1361	0.03856	87.0	132.0	132.0	0	0	1	-59.99999999999999	59.99999999999999								
	5180	5140	0.00121	0.01455	1.463	1306.0	1854.0	1306.0	0	0	1	-59.99999999999999	59.99999999999999								
	8068	6387	0.0018340000000000001	0.10125	0.00043	0.0	0.0	0.0	0	0	1	-59.99999999999999	59.99999999999999								
	410	431	0.00184	0.010726	0.036000000000000004	324.0	445.0	445.0	0	0	1	-59.99999999999999	59.99999999999999								
	780	781	0.0726	0.2089	0.056299999999999996	103.0	120.0	25.0	0	0	1	-59.99999999999999	59.99999999999999								
	7055	7059	0.0	1.0e-5	0.0	0.0	0.0	0.0	0	0	1	-59.99999999999999	59.99999999999999								
	815	821	0.0012	0.006999999999999999	0.013999999999999999	386.0	432.0	432.0	0	0	1	-59.99999999999999	59.99999999999999								
	9721	9910	0.0022	0.0073	0.0021	72.0	72.0	72.0	0	0	1	-59.99999999999999	59.99999999999999								
	784	3761	0.0131	0.03809	0.01	103.0	120.0	103.0	0	0	1	-59.99999999999999	59.99999999999999								
	4869	4868	0.01838	0.15284	0.60584	558.0	697.0	31.0	0	0	1	-59.99999999999999	59.99999999999999								
	6037	5448	0.0040987	0.06431	0.025207	0.0	0.0	0.0	0	0	1	-59.99999999999999	59.99999999999999								
	9890	898	0.008060000000000001	0.047850000000000004	0.09425	319.0	372.0	372.0	0	0	1	-59.99999999999999	59.99999999999999								
	284	1651	0.00168	0.009572	0.00272	194.0	247.00000000000003	239.0	0	0	1	-59.99999999999999	59.99999999999999								
	564	2274	0.0058	0.031400000000000004	0.0097	188.0	192.0	191.0	0	0	1	-59.99999999999999	59.99999999999999								
	6226	5049	0.0181	0.0736	0.001451	0.0	0.0	0.0	0	0	1	-59.99999999999999	59.99999999999999								
	1225	1046	0.0226	0.18359999999999999	0.37326	441.0	441.0	441.0	0	0	1	-59.99999999999999	59.99999999999999								
	9756	2070	0.00836	0.03185	0.002014	108.0	158.0	158.0	0	0	1	-59.99999999999999	59.99999999999999								
	5791	5793	0.0	0.2625	0.0	0.0	0.0	0.0	0	0	1	-59.99999999999999	59.99999999999999								
	27617	3858	6.0e-5	0.000155	3.8e-5	95.0	139.0	95.0	0	0	0	-59.99999999999999	59.99999999999999								
	1241	9965	0.00187	0.01784	0.0011	134.0	162.0	162.0	0	0	1	-59.99999999999999	59.99999999999999								
	548	4197	0.0197	0.044500000000000005	0.011890000000000001	80.0	108.0	80.0	0	0	1	-59.99999999999999	59.99999999999999								
	3147	12028	0.0001	0.0003	0.0001	101.0	144.0	101.0	0	0	0	-59.99999999999999	59.99999999999999								
	9316	870	0.0184	0.0538	0.014610000000000001	51.0	51.0	51.0	0	0	1	-59.99999999999999	59.99999999999999								
	7091	7094	0.1888	0.3579	0.00642	40.0	46.0	40.0	0	0	1	-59.99999999999999	59.99999999999999								
	6521	6554	0.004699999999999999	0.042	0.1549	259.0	445.0	445.0	0	0	1	-59.99999999999999	59.99999999999999								
	4358	394	0.0005	0.00337	0.01272	400.0	478.0	400.0	0	0	1	-59.99999999999999	59.99999999999999								
	955	9738	0.00024	0.00362	0.55389	2655.0	2655.0	2655.0	0	0	1	-59.99999999999999	59.99999999999999								
	364	170	0.0002	0.0024	0.0011	344.0	344.0	344.0	0	0	1	-59.99999999999999	59.99999999999999								
	1008	2875	0.019299999999999998	0.0462	0.0008	63.0	63.0	63.0	0	0	1	-59.99999999999999	59.99999999999999								
	1016	2759	0.00634	0.021339999999999998	0.005809999999999999	119.0	151.0	151.0	0	0	1	-59.99999999999999	59.99999999999999								
	2882	2847	0.0321	0.09970000000000001	0.0339	143.0	143.0	143.0	0	0	1	-59.99999999999999	59.99999999999999								
	11678	7770	0.021139	0.049635	0.013181	139.0	163.0	139.0	0	0	1	-59.99999999999999	59.99999999999999								
	7305	7200	0.00125	0.01828	2.7281	2598.0	2910.0	100.0	0	0	1	-59.99999999999999	59.99999999999999								
	2107	2132	0.0073	0.0255	0.0069	128.0	143.0	69.0	0	0	1	-59.99999999999999	59.99999999999999								
	2535	2536	0.0694	0.1188	0.00208	55.00000000000001	60.0	55.00000000000001	0	0	1	-59.99999999999999	59.99999999999999								
	27632	1905	0.00105	0.00271	0.000673	95.0	110.00000000000001	95.0	0	0	1	-59.99999999999999	59.99999999999999								
	2572	2575	0.0704	0.1469	0.00021999999999999998	30.0	30.0	30.0	0	0	1	-59.99999999999999	59.99999999999999								
	24173	3803	0.0031	0.008	0.002	95.0	139.0	139.0	0	0	0	-59.99999999999999	59.99999999999999								
	3505	251	0.007478	0.042765000000000004	0.012157	194.0	247.00000000000003	194.0	0	0	1	-59.99999999999999	59.99999999999999								
	2398	2401	0.0342	0.1107	0.001966	41.0	65.0	65.0	0	0	1	-59.99999999999999	59.99999999999999								
	6678	7151	0.0	1.0e-5	0.0	0.0	0.0	0.0	0	0	1	-59.99999999999999	59.99999999999999								
	5446	5452	2.0e-5	0.000174	0.0006	478.0	478.0	478.0	0	0	1	-59.99999999999999	59.99999999999999								
	2625	2666	0.0148	0.0603	0.016120000000000002	138.0	138.0	40.0	0	0	1	-59.99999999999999	59.99999999999999								
	3863	718	0.0	0.0001	0.0	0.0	0.0	20.0	0	0	1	-59.99999999999999	59.99999999999999								
	3958	280	0.0068000000000000005	0.0317	0.00882	153.0	194.0	153.0	0	0	1	-59.99999999999999	59.99999999999999								
	699	27627	0.00012	0.00031	0.0001	80.0	108.0	80.0	0	0	1	-59.99999999999999	59.99999999999999								
	674	7738	0.016668000000000002	0.070389	0.020499999999999997	143.0	150.0	143.0	0	0	1	-59.99999999999999	59.99999999999999								
	22002	21959	0.001062	0.002494	0.0007000000000000001	139.0	163.0	139.0	0	0	1	-59.99999999999999	59.99999999999999								
	1480	1482	0.01497	0.03883	0.00953	71.7	71.7	71.7	0	0	1	-59.99999999999999	59.99999999999999								
	4108	1695	1.9e-5	0.00014000000000000001	0.000169	478.0	602.0	478.0	0	0	1	-59.99999999999999	59.99999999999999								
	6061	8179	0.00091	0.00502	0.0248	345.0	345.0	400.0	0	0	1	-59.99999999999999	59.99999999999999								
	566	695	0.006999999999999999	0.0329	0.009399999999999999	143.0	150.0	143.0	0	0	1	-59.99999999999999	59.99999999999999								
	867	2491	0.0383	0.09369999999999999	0.022709999999999998	57.99999999999999	97.0	97.0	0	0	1	-59.99999999999999	59.99999999999999								
	3845	709	0.0	0.0001	0.0	0.0	0.0	0.0	0	0	1	-59.99999999999999	59.99999999999999								
	7695	4703	0.027000000000000003	0.09903	0.0292	166.0	206.0	206.0	0	0	1	-59.99999999999999	59.99999999999999								
	377	1527	0.015	0.0387	0.0095	125.0	160.0	125.0	0	0	1	-59.99999999999999	59.99999999999999								
	2356	2357	0.034	0.092	0.0018	81.0	81.0	81.0	0	0	1	-59.99999999999999	59.99999999999999								
	1662	1663	0.0007000000000000001	0.001	0.025179999999999998	123.0	133.0	106.0	0	0	1	-59.99999999999999	59.99999999999999								
	568	2224	0.03611	0.08404	0.021150000000000002	144.0	168.0	144.0	0	0	0	-59.99999999999999	59.99999999999999								
	6124	6276	0.01724	0.18389	0.000722	0.0	0.0	87.0	0	0	1	-59.99999999999999	59.99999999999999								
	2179	2239	0.0129	0.034	0.008	103.0	129.0	103.0	0	0	1	-59.99999999999999	59.99999999999999								
	4260	2331	0.0034200000000000003	0.0096	0.00246	216.0	252.99999999999997	216.0	0	0	1	-59.99999999999999	59.99999999999999								
	386	7429	0.0069	0.0317	0.0088	180.0	180.0	180.0	0	0	1	-59.99999999999999	59.99999999999999								
	5420	5401	0.011899999999999999	0.053200000000000004	0.2766	400.0	400.0	400.0	0	0	1	-59.99999999999999	59.99999999999999								
	665	3522	0.043092	0.19914	0.0581	114.99999999999999	159.0	114.99999999999999	0	0	1	-59.99999999999999	59.99999999999999								
	1264	9961	0.000197	0.00194	0.03049	362.0	480.0	480.0	0	0	1	-59.99999999999999	59.99999999999999								
	696	2344	0.0169	0.0443	0.0106	96.0	114.99999999999999	80.0	0	0	1	-59.99999999999999	59.99999999999999								
	22029	22027	0.008679	0.022083	0.005600000000000001	108.0	129.0	108.0	0	0	1	-59.99999999999999	59.99999999999999								
	7202	7246	0.0967	0.23600000000000002	0.0603	112.00000000000001	140.0	140.0	0	0	0	-59.99999999999999	59.99999999999999								
	10243	1337	0.0	1.0e-5	0.0	0.0	0.0	0.0	0	0	1	-59.99999999999999	59.99999999999999								
	2368	10333	0.006500000000000001	0.024929999999999997	0.0006	98.0	98.0	98.0	0	0	1	-59.99999999999999	59.99999999999999								
	307	755	0.061799999999999994	0.162	0.03875	125.0	154.0	125.0	0	0	1	-59.99999999999999	59.99999999999999								
	8111	8113	0.073468	0.69383	0.0034189999999999997	0.0	0.0	0.0	0	0	1	-59.99999999999999	59.99999999999999								
	2715	9534	0.0044	0.0152	0.0043	160.0	184.0	184.0	0	0	1	-59.99999999999999	59.99999999999999								
	1239	10358	0.00029	0.0016200000000000001	0.003	290.0	366.0	366.0	0	0	1	-59.99999999999999	59.99999999999999								
	6265	8711	0.0	1.0e-5	0.0	0.0	0.0	0.0	0	0	1	-59.99999999999999	59.99999999999999								
	283	1656	0.000378	0.002154	0.00061	194.0	247.00000000000003	239.0	0	0	1	-59.99999999999999	59.99999999999999								
	1071	9840	0.00461	0.03286	0.06565	365.0	458.0	458.0	0	0	1	-59.99999999999999	59.99999999999999								
	8017	5702	0.002408	0.082347	0.030807	0.0	0.0	0.0	0	0	1	-59.99999999999999	59.99999999999999								
	4073	4069	0.0529	0.13720000000000002	0.0337	95.6	95.6	95.6	0	0	1	-59.99999999999999	59.99999999999999								
	978	1086	0.027719999999999998	0.18924	0.45385	350.0	378.0	378.0	0	0	1	-59.99999999999999	59.99999999999999								
	276	1771	0.0182	0.1058	0.0304	122.0	134.0	194.0	0	0	1	-59.99999999999999	59.99999999999999								
	1519	1552	0.0803	0.214	0.05	124.0	124.0	124.0	0	0	1	-59.99999999999999	59.99999999999999								
	2755	2782	0.025699999999999997	0.0825	0.0265	72.0	72.0	72.0	0	0	1	-59.99999999999999	59.99999999999999								
	3768	2998	0.029769999999999998	0.08656000000000001	0.0232	103.0	120.0	103.0	0	0	1	-59.99999999999999	59.99999999999999								
	237	2522	0.0031	0.016200000000000003	0.00402	186.0	204.99999999999997	186.0	0	0	1	-59.99999999999999	59.99999999999999								
	2690	2689	0.1439	0.33159999999999995	0.0044	70.0	70.0	28.999999999999996	0	0	1	-59.99999999999999	59.99999999999999								
	9330	43217	0.0	1.0e-5	0.0	0.0	0.0	0.0	0	0	1	-59.99999999999999	59.99999999999999								
	568	2122	0.0022	0.0121	0.00363	188.0	191.0	365.0	0	0	1	-59.99999999999999	59.99999999999999								
	8896	8897	0.015	0.12	0.012	0.0	0.0	0.0	0	0	1	-59.99999999999999	59.99999999999999								
	2110	7685	0.015068	0.039623	0.009255	144.0	168.0	144.0	0	0	1	-59.99999999999999	59.99999999999999								
	1386	9278	0.00084	0.00422	0.00739	365.0	426.99999999999994	426.99999999999994	0	0	1	-59.99999999999999	59.99999999999999								
	3032	149	0.00299	0.032799999999999996	0.5519	852.9999999999999	1075.0	852.9999999999999	0	0	1	-59.99999999999999	59.99999999999999								
	1879	10177	0.0	1.0e-5	0.0	0.0	0.0	0.0	0	0	1	-59.99999999999999	59.99999999999999								
	552	561	0.0018529999999999998	0.023542999999999998	1.3272	1524.0	1524.0	1524.0	0	0	1	-59.99999999999999	59.99999999999999								
	5020	7199	0.046868999999999994	0.18644	0.015645	0.0	0.0	0.0	0	0	1	-59.99999999999999	59.99999999999999								
	561	7734	0.000612	0.0076500000000000005	0.49274999999999997	1524.0	1524.0	1524.0	0	0	1	-59.99999999999999	59.99999999999999								
	437	41893	1.0e-5	1.0e-5	0.0	0.0	0.0	0.0	0	0	1	-59.99999999999999	59.99999999999999								
	1391	1392	0.0007000000000000001	0.00179	0.000452	120.0	120.0	120.0	0	0	0	-59.99999999999999	59.99999999999999								
	1094	1093	0.032400000000000005	0.0842	0.021400000000000002	119.0	139.0	139.0	0	0	1	-59.99999999999999	59.99999999999999								
	843	10005	0.00892	0.05033000000000001	0.09609999999999999	284.0	383.0	383.0	0	0	1	-59.99999999999999	59.99999999999999								
	9726	874	0.0008	0.0040999999999999995	0.0014199999999999998	233.0	233.0	233.0	0	0	1	-59.99999999999999	59.99999999999999								
	226	760	0.0	0.0001	0.0	438.0	438.0	438.0	0	0	1	-59.99999999999999	59.99999999999999								
	4522	4541	0.04102	0.19862	0.37065	233.0	294.0	48.0	0	0	1	-59.99999999999999	59.99999999999999								
	7607	9137	8.0e-5	0.000206	5.1000000000000006e-5	98.0	106.0	98.0	0	0	0	-59.99999999999999	59.99999999999999								
	5411	5410	0.0	1.0e-5	0.0	100.0	100.0	100.0	0	0	1	-59.99999999999999	59.99999999999999								
	10137	825	0.01607	0.049080000000000006	0.01208	80.0	130.0	130.0	0	0	1	-59.99999999999999	59.99999999999999								
	859	870	0.0288	0.060899999999999996	0.014159999999999999	115.99999999999999	127.0	127.0	0	0	1	-59.99999999999999	59.99999999999999								
	1138	1075	0.0038	0.015300000000000001	0.004141000000000001	157.0	168.0	168.0	0	0	1	-59.99999999999999	59.99999999999999								
	2710	9534	0.0105	0.036000000000000004	0.0102	160.0	160.0	160.0	0	0	1	-59.99999999999999	59.99999999999999								
	7187	6269	0.0017310000000000001	0.014376	0.0	0.0	0.0	0.0	0	0	1	-59.99999999999999	59.99999999999999								
	229	2988	0.014025000000000001	0.065014	0.12294000000000001	227.0	323.0	227.0	0	0	1	-59.99999999999999	59.99999999999999								
	661	21671	0.009607	0.04458	0.013000000000000001	114.99999999999999	159.0	114.99999999999999	0	0	1	-59.99999999999999	59.99999999999999								
	2106	2156	0.0273	0.0925	0.026099999999999998	101.0	144.0	69.0	0	0	1	-59.99999999999999	59.99999999999999								
	3312	3311	0.0144	0.0362	0.0005899999999999999	28.000000000000004	28.000000000000004	239.0	0	0	1	-59.99999999999999	59.99999999999999								
	5590	43956	1.0e-5	1.0e-5	0.0	1992.0000000000002	2598.0	200.0	0	0	1	-59.99999999999999	59.99999999999999								
	9336	43190	0.0	1.0e-5	0.0	0.0	0.0	0.0	0	0	1	-59.99999999999999	59.99999999999999								
	4367	9076	0.022860000000000002	0.058550000000000005	0.01452	125.0	125.0	125.0	0	0	1	-59.99999999999999	59.99999999999999								
	353	7174	0.0048	0.019	0.0053	215.0	215.0	215.0	0	0	1	-59.99999999999999	59.99999999999999								
	9261	9221	0.03088	0.13085000000000002	0.00246	82.0	82.0	82.0	0	0	1	-59.99999999999999	59.99999999999999								
	7326	337	0.0296	0.0711	0.0168	125.0	160.0	125.0	0	0	1	-59.99999999999999	59.99999999999999								
	7715	7714	0.000659	0.001129	0.000254	78.0	78.0	78.0	0	0	1	-59.99999999999999	59.99999999999999								
	8066	6016	0.013413	0.22802	0.0005870000000000001	0.0	0.0	0.0	0	0	1	-59.99999999999999	59.99999999999999								
	14185	11996	0.027633	0.07258099999999999	0.018600000000000002	80.0	108.0	80.0	0	0	1	-59.99999999999999	59.99999999999999								
	12001	1987	0.010602	0.027195	0.0070999999999999995	80.0	91.0	80.0	0	0	1	-59.99999999999999	59.99999999999999								
	6717	6232	0.010648999999999999	0.11673	0.008837000000000001	0.0	0.0	0.0	0	0	1	-59.99999999999999	59.99999999999999								
	1515	1567	0.0014000000000000002	0.0055000000000000005	0.00157	216.0	216.0	216.0	0	0	1	-59.99999999999999	59.99999999999999								
	1186	1294	0.01244	0.06005	0.4567	538.0	538.0	538.0	0	0	1	-59.99999999999999	59.99999999999999								
	11964	11948	0.004993	0.011722999999999999	0.0031	139.0	163.0	139.0	0	0	1	-59.99999999999999	59.99999999999999								
	5591	5696	0.000851	0.006503	0.024900000000000002	150.0	150.0	150.0	0	0	1	-59.99999999999999	59.99999999999999								
	2048	9112	0.024583	0.0579	0.0025	89.0	104.0	89.0	0	0	1	-59.99999999999999	59.99999999999999								
	5742	8746	0.01695	0.22956	0.00752	0.0	0.0	0.0	0	0	1	-59.99999999999999	59.99999999999999								
	72	71	0.00064	0.0154	7.6	4133.0	4174.0	3684.0000000000005	0	0	1	-59.99999999999999	59.99999999999999								
	24233	3846	3.0e-5	0.0001	2.0e-5	95.0	139.0	95.0	0	0	1	-59.99999999999999	59.99999999999999								
	7056	7055	0.00068	0.0109	1.3200999999999998	2700.0	3300.0	13.0	0	0	1	-59.99999999999999	59.99999999999999								
	1798	7492	0.09196	0.23475000000000001	0.0037140000000000003	48.0	48.0	48.0	0	0	1	-59.99999999999999	59.99999999999999								
	21992	3138	0.0013	0.0033	0.0009	80.0	108.0	80.0	0	0	1	-59.99999999999999	59.99999999999999								
	10135	9370	0.04822	0.14723	0.03625	82.0	130.0	130.0	0	0	1	-59.99999999999999	59.99999999999999								
	2247	2251	0.0070999999999999995	0.0177	0.004699999999999999	103.0	129.0	103.0	0	0	0	-59.99999999999999	59.99999999999999								
	183	274	0.0433	0.2518	0.0726	155.0	195.0	38.0	0	0	1	-59.99999999999999	59.99999999999999								
	4658	4840	0.0019	0.0025	0.00063	40.0	50.0	40.0	0	0	1	-59.99999999999999	59.99999999999999								
	2581	2595	0.0032	0.00668	1.0e-5	32.0	35.0	32.0	0	0	1	-59.99999999999999	59.99999999999999								
	5255	5249	0.0958	0.2788	0.0708	81.0	84.0	81.0	0	0	1	-59.99999999999999	59.99999999999999								
	562	2174	0.0139	0.0359	0.0088	103.0	129.0	80.0	0	0	1	-59.99999999999999	59.99999999999999								
	3089	2636	0.0032400000000000003	0.012669999999999999	0.003444	190.0	190.0	190.0	0	0	1	-59.99999999999999	59.99999999999999								
	2802	2889	0.0191	0.0621	0.019299999999999998	96.0	96.0	96.0	0	0	1	-59.99999999999999	59.99999999999999								
	22312	2312	0.00263	0.0064600000000000005	0.0017299999999999998	101.0	144.0	144.0	0	0	1	-59.99999999999999	59.99999999999999								
	605	11901	0.021432000000000003	0.090839	0.0262	206.0	242.0	206.0	0	0	1	-59.99999999999999	59.99999999999999								
	1058	2737	0.0414	0.11320000000000001	0.0022	86.0	86.0	86.0	0	0	1	-59.99999999999999	59.99999999999999								
	399	4382	0.0398	0.06849999999999999	0.017	73.0	73.0	73.0	0	0	1	-59.99999999999999	59.99999999999999								
	813	821	0.0007000000000000001	0.0039000000000000003	0.00783	387.0	433.0	433.0	0	0	1	-59.99999999999999	59.99999999999999								
	1733	1734	0.00216	0.0123	0.0035110000000000002	143.0	143.0	222.00000000000003	0	0	1	-59.99999999999999	59.99999999999999								
	568	2185	0.00522	0.01694	0.004797	179.0	210.0	179.0	0	0	1	-59.99999999999999	59.99999999999999								
	1724	1725	0.043179999999999996	0.14029	0.0027660000000000002	80.0	80.0	43.0	0	0	0	-59.99999999999999	59.99999999999999								
	3958	178	0.0038429999999999996	0.021896	0.006222	194.0	247.00000000000003	194.0	0	0	0	-59.99999999999999	59.99999999999999								
	22026	624	0.04747899999999999	0.12478	0.032	80.0	108.0	80.0	0	0	1	-59.99999999999999	59.99999999999999								
	3172	21915	0.0043219999999999995	0.0065580000000000005	0.0015010000000000002	73.0	104.0	73.0	0	0	1	-59.99999999999999	59.99999999999999								
	8512	8536	0.00078	0.00594	0.00379	335.0	420.0	335.0	0	0	1	-59.99999999999999	59.99999999999999								
	2701	2896	0.0482	0.1184	0.0321	127.0	127.0	127.0	0	0	1	-59.99999999999999	59.99999999999999								
	10291	1843	0.079	0.20679999999999998	0.0506	124.0	124.0	124.0	0	0	1	-59.99999999999999	59.99999999999999								
...
];

%% dcline data
%    f_bus    t_bus    status    Pf    Pt    Qf    Qt    Vf    Vt    Pmin    Pmax    QminF    QmaxF    QminT    QmaxT    loss0    loss1
mpc.dcline = [
	85	86	1	1000.0	970.9166666666666	-0.0	-0.0	1.027	1.024	-970.9166666666666	1000.0	-996.1946980917455	0.0	-928.4922259771104	0.0	0.0	0.0						
	85	86	1	1000.0	970.9166666666666	-0.0	-0.0	1.027	1.024	-970.9166666666666	1000.0	-996.1946980917455	0.0	-928.4922259771104	0.0	0.0	0.0						
	85	86	1	1000.0	970.9166666666666	-0.0	-0.0	1.027	1.024	-970.9166666666666	1000.0	-996.1946980917455	0.0	-928.4922259771104	0.0	0.0	0.0						
	85	86	1	1000.0	970.9166666666666	-0.0	-0.0	1.027	1.024	-970.9166666666666	1000.0	-996.1946980917455	0.0	-928.4922259771104	0.0	0.0	0.0						
	7055	7057	1	1500.0	1393.125	-0.0	-0.0	1.038	1.024	-1393.125	1500.0	-1494.2920471376183	0.0	-1332.2520631510038	0.0	0.0	0.0						
	7055	7057	1	1500.0	1393.125	-0.0	-0.0	1.038	1.024	-1393.125	1500.0	-1494.2920471376183	0.0	-1332.2520631510038	0.0	0.0	0.0						
	7055	7057	1	1500.0	1400.9375	-0.0	-0.0	1.038	1.024	-1400.9375	1500.0	-1494.2920471376183	0.0	-1328.5421707154348	0.0	0.0	0.0						
	7055	7057	1	1500.0	1400.9375	-0.0	-0.0	1.038	1.024	-1400.9375	1500.0	-1494.2920471376183	0.0	-1328.5421707154348	0.0	0.0	0.0						
	7059	7054	1	200.0	197.6841219541379	-0.0	-0.0	1.038	0.991	-197.6841219541379	200.0	-197.25712030744629	0.0	-183.28952618008847	0.0	0.0	0.0						
	7059	7054	1	200.0	197.6841219541379	-0.0	-0.0	1.038	0.991	-197.6841219541379	200.0	-197.25712030744629	0.0	-183.28952618008847	0.0	0.0	0.0						
	8100	3010	1	2000.0	1913.1250000000002	-0.0	-0.0	1.056	1.05	-1913.1250000000002	2000.0	-1951.069087891713	0.0	-1819.4899977371656	0.0	0.0	0.0						
	8100	3010	1	2000.0	1913.1250000000002	-0.0	-0.0	1.056	1.05	-1913.1250000000002	2000.0	-1951.069087891713	0.0	-1819.4899977371656	0.0	0.0	0.0						
	8100	9605	1	2000.0	1894.9375	-0.0	-0.0	1.056	1.035	-1894.9375	2000.0	-1992.389396183491	0.0	-1812.1377435027046	0.0	0.0	0.0						
	8100	9605	1	2000.0	1894.9375	-0.0	-0.0	1.056	1.035	-1894.9375	2000.0	-1992.389396183491	0.0	-1812.1377435027046	0.0	0.0	0.0						
];

%%-----  OPF Data  -----%%
%% cost data
%    1    startup    shutdown    n    x1    y1    ...    xn    yn
%    2    startup    shutdown    n    c(n-1)    ...    c0
mpc.gencost = [
	2	0.0	0.0	2	1.0	0.0
	2	0.0	0.0	2	1.0	0.0
	2	0.0	0.0	2	1.0	0.0
	2	0.0	0.0	2	1.0	0.0
	2	0.0	0.0	2	1.0	0.0
	2	0.0	0.0	2	1.0	0.0
	2	0.0	0.0	2	1.0	0.0
	2	0.0	0.0	2	1.0	0.0
	2	0.0	0.0	2	1.0	0.0
	2	0.0	0.0	2	1.0	0.0
	2	0.0	0.0	2	1.0	0.0
	2	0.0	0.0	2	1.0	0.0
	2	0.0	0.0	2	1.0	0.0
	2	0.0	0.0	2	1.0	0.0
	2	0.0	0.0	2	1.0	0.0
	2	0.0	0.0	2	1.0	0.0
	2	0.0	0.0	2	1.0	0.0
	2	0.0	0.0	2	1.0	0.0
	2	0.0	0.0	2	1.0	0.0
	2	0.0	0.0	2	1.0	0.0
	2	0.0	0.0	2	1.0	0.0
	2	0.0	0.0	2	1.0	0.0
	2	0.0	0.0	2	1.0	0.0
	2	0.0	0.0	2	1.0	0.0
	2	0.0	0.0	2	1.0	0.0
	2	0.0	0.0	2	1.0	0.0
	2	0.0	0.0	2	1.0	0.0
	2	0.0	0.0	2	1.0	0.0
	2	0.0	0.0	2	1.0	0.0
	2	0.0	0.0	2	1.0	0.0
	2	0.0	0.0	2	1.0	0.0
	2	0.0	0.0	2	1.0	0.0
	2	0.0	0.0	2	1.0	0.0
	2	0.0	0.0	2	1.0	0.0
	2	0.0	0.0	2	1.0	0.0
	2	0.0	0.0	2	1.0	0.0
	2	0.0	0.0	2	1.0	0.0
	2	0.0	0.0	2	1.0	0.0
	2	0.0	0.0	2	1.0	0.0
	2	0.0	0.0	2	1.0	0.0
	2	0.0	0.0	2	1.0	0.0
	2	0.0	0.0	2	1.0	0.0
	2	0.0	0.0	2	1.0	0.0
	2	0.0	0.0	2	1.0	0.0
	2	0.0	0.0	2	1.0	0.0
	2	0.0	0.0	2	1.0	0.0
	2	0.0	0.0	2	1.0	0.0
	2	0.0	0.0	2	1.0	0.0
	2	0.0	0.0	2	1.0	0.0
	2	0.0	0.0	2	1.0	0.0
	2	0.0	0.0	2	1.0	0.0
	2	0.0	0.0	2	1.0	0.0
	2	0.0	0.0	2	1.0	0.0
	2	0.0	0.0	2	1.0	0.0
	2	0.0	0.0	2	1.0	0.0
	2	0.0	0.0	2	1.0	0.0
	2	0.0	0.0	2	1.0	0.0
	2	0.0	0.0	2	1.0	0.0
	2	0.0	0.0	2	1.0	0.0
	2	0.0	0.0	2	1.0	0.0
	2	0.0	0.0	2	1.0	0.0
	2	0.0	0.0	2	1.0	0.0
	2	0.0	0.0	2	1.0	0.0
	2	0.0	0.0	2	1.0	0.0
	2	0.0	0.0	2	1.0	0.0
	2	0.0	0.0	2	1.0	0.0
	2	0.0	0.0	2	1.0	0.0
	2	0.0	0.0	2	1.0	0.0
	2	0.0	0.0	2	1.0	0.0
	2	0.0	0.0	2	1.0	0.0
	2	0.0	0.0	2	1.0	0.0
	2	0.0	0.0	2	1.0	0.0
	2	0.0	0.0	2	1.0	0.0
	2	0.0	0.0	2	1.0	0.0
	2	0.0	0.0	2	1.0	0.0
	2	0.0	0.0	2	1.0	0.0
	2	0.0	0.0	2	1.0	0.0
	2	0.0	0.0	2	1.0	0.0
	2	0.0	0.0	2	1.0	0.0
	2	0.0	0.0	2	1.0	0.0
	2	0.0	0.0	2	1.0	0.0
	2	0.0	0.0	2	1.0	0.0
	2	0.0	0.0	2	1.0	0.0
	2	0.0	0.0	2	1.0	0.0
	2	0.0	0.0	2	1.0	0.0
	2	0.0	0.0	2	1.0	0.0
	2	0.0	0.0	2	1.0	0.0
	2	0.0	0.0	2	1.0	0.0
	2	0.0	0.0	2	1.0	0.0
	2	0.0	0.0	2	1.0	0.0
	2	0.0	0.0	2	1.0	0.0
	2	0.0	0.0	2	1.0	0.0
	2	0.0	0.0	2	1.0	0.0
	2	0.0	0.0	2	1.0	0.0
	2	0.0	0.0	2	1.0	0.0
	2	0.0	0.0	2	1.0	0.0
	2	0.0	0.0	2	1.0	0.0
	2	0.0	0.0	2	1.0	0.0
	2	0.0	0.0	2	1.0	0.0
	2	0.0	0.0	2	1.0	0.0
	2	0.0	0.0	2	1.0	0.0
	2	0.0	0.0	2	1.0	0.0
	2	0.0	0.0	2	1.0	0.0
	2	0.0	0.0	2	1.0	0.0
	2	0.0	0.0	2	1.0	0.0
	2	0.0	0.0	2	1.0	0.0
	2	0.0	0.0	2	1.0	0.0
	2	0.0	0.0	2	1.0	0.0
	2	0.0	0.0	2	1.0	0.0
	2	0.0	0.0	2	1.0	0.0
	2	0.0	0.0	2	1.0	0.0
	2	0.0	0.0	2	1.0	0.0
	2	0.0	0.0	2	1.0	0.0
	2	0.0	0.0	2	1.0	0.0
	2	0.0	0.0	2	1.0	0.0
	2	0.0	0.0	2	1.0	0.0
	2	0.0	0.0	2	1.0	0.0
	2	0.0	0.0	2	1.0	0.0
	2	0.0	0.0	2	1.0	0.0
	2	0.0	0.0	2	1.0	0.0
	2	0.0	0.0	2	1.0	0.0
	2	0.0	0.0	2	1.0	0.0
	2	0.0	0.0	2	1.0	0.0
	2	0.0	0.0	2	1.0	0.0
	2	0.0	0.0	2	1.0	0.0
	2	0.0	0.0	2	1.0	0.0
	2	0.0	0.0	2	1.0	0.0
	2	0.0	0.0	2	1.0	0.0
	2	0.0	0.0	2	1.0	0.0
	2	0.0	0.0	2	1.0	0.0
	2	0.0	0.0	2	1.0	0.0
	2	0.0	0.0	2	1.0	0.0
	2	0.0	0.0	2	1.0	0.0
	2	0.0	0.0	2	1.0	0.0
	2	0.0	0.0	2	1.0	0.0
	2	0.0	0.0	2	1.0	0.0
	2	0.0	0.0	2	1.0	0.0
	2	0.0	0.0	2	1.0	0.0
	2	0.0	0.0	2	1.0	0.0
	2	0.0	0.0	2	1.0	0.0
	2	0.0	0.0	2	1.0	0.0
	2	0.0	0.0	2	1.0	0.0
	2	0.0	0.0	2	1.0	0.0
	2	0.0	0.0	2	1.0	0.0
	2	0.0	0.0	2	1.0	0.0
	2	0.0	0.0	2	1.0	0.0
	2	0.0	0.0	2	1.0	0.0
	2	0.0	0.0	2	1.0	0.0
	2	0.0	0.0	2	1.0	0.0
	2	0.0	0.0	2	1.0	0.0
	2	0.0	0.0	2	1.0	0.0
	2	0.0	0.0	2	1.0	0.0
	2	0.0	0.0	2	1.0	0.0
	2	0.0	0.0	2	1.0	0.0
	2	0.0	0.0	2	1.0	0.0
	2	0.0	0.0	2	1.0	0.0
	2	0.0	0.0	2	1.0	0.0
	2	0.0	0.0	2	1.0	0.0
	2	0.0	0.0	2	1.0	0.0
	2	0.0	0.0	2	1.0	0.0
	2	0.0	0.0	2	1.0	0.0
	2	0.0	0.0	2	1.0	0.0
	2	0.0	0.0	2	1.0	0.0
	2	0.0	0.0	2	1.0	0.0
	2	0.0	0.0	2	1.0	0.0
	2	0.0	0.0	2	1.0	0.0
	2	0.0	0.0	2	1.0	0.0
	2	0.0	0.0	2	1.0	0.0
	2	0.0	0.0	2	1.0	0.0
	2	0.0	0.0	2	1.0	0.0
	2	0.0	0.0	2	1.0	0.0
	2	0.0	0.0	2	1.0	0.0
	2	0.0	0.0	2	1.0	0.0
	2	0.0	0.0	2	1.0	0.0
	2	0.0	0.0	2	1.0	0.0
	2	0.0	0.0	2	1.0	0.0
	2	0.0	0.0	2	1.0	0.0
	2	0.0	0.0	2	1.0	0.0
	2	0.0	0.0	2	1.0	0.0
	2	0.0	0.0	2	1.0	0.0
	2	0.0	0.0	2	1.0	0.0
	2	0.0	0.0	2	1.0	0.0
	2	0.0	0.0	2	1.0	0.0
	2	0.0	0.0	2	1.0	0.0
	2	0.0	0.0	2	1.0	0.0
	2	0.0	0.0	2	1.0	0.0
	2	0.0	0.0	2	1.0	0.0
	2	0.0	0.0	2	1.0	0.0
	2	0.0	0.0	2	1.0	0.0
	2	0.0	0.0	2	1.0	0.0
	2	0.0	0.0	2	1.0	0.0
	2	0.0	0.0	2	1.0	0.0
	2	0.0	0.0	2	1.0	0.0
	2	0.0	0.0	2	1.0	0.0
	2	0.0	0.0	2	1.0	0.0
	2	0.0	0.0	2	1.0	0.0
	2	0.0	0.0	2	1.0	0.0
	2	0.0	0.0	2	1.0	0.0
	2	0.0	0.0	2	1.0	0.0
	2	0.0	0.0	2	1.0	0.0
...
];

%%-----  OPF Data  -----%%
%% cost data
%    1    startup    shutdown    n    x1    y1    ...    xn    yn
%    2    startup    shutdown    n    c(n-1)    ...    c0
mpc.dclinecost = [
	2	0.0	0.0	2	0.0	0.0
	2	0.0	0.0	2	0.0	0.0
	2	0.0	0.0	2	0.0	0.0
	2	0.0	0.0	2	0.0	0.0
	2	0.0	0.0	2	0.0	0.0
	2	0.0	0.0	2	0.0	0.0
	2	0.0	0.0	2	0.0	0.0
	2	0.0	0.0	2	0.0	0.0
	2	0.0	0.0	2	0.0	0.0
	2	0.0	0.0	2	0.0	0.0
	2	0.0	0.0	2	0.0	0.0
	2	0.0	0.0	2	0.0	0.0
	2	0.0	0.0	2	0.0	0.0
	2	0.0	0.0	2	0.0	0.0
];

%% bus names
mpc.bus_name = {
	'ANGRA1UNE001'
	'ANGRA2UNE001'
	'LCBARRUHE004'
	'LCBARRSIN001'
	'FUNIL-UHE002'
	'FURNASUHE005'
	'FURNASSIN001'
	'ITUMBIUHE004'
	'ITUMBISIN001'
	'MARIMBUHE005'
	'MANSO-UHE004'
	'M.MORAUHE004'
	'M.MORBUHE003'
	'PCOLOMUHE003'
	'SCRU19UTE000'
	'SCRU13UTE000'
	'SCRU16UTE000'
	'CORUMBUHE002'
	'S.MESAUHE003'
	'S.MESASIN000'
	'GRAJA2SIN001'
	'VITOR2SIN001'
	'BAND-1CER345'
	'BAND-2CER345'
	'GRAJA1SIN001'
	'CAMPOSCER345'
	'VITOR1SIN001'
	'IBIUNASIN004'
	'TPRETOSIN001'
	'P.ACU--RJ345'
	'GNAIG-UTE000'
	'GNAIV-UTE000'
	'BALTO-CER230'
	'IVAIP3-PR069'
	'IVAIP2-PR069'
	'IVAIP2-PR000'
	'IVAIP3-PR000'
	'F.IGUA-PR765'
	'FZ-500-PR500'
	'IV-FZ1CAP765'
	'IV-FZ2CAP765'
	'IV-FZ3CAP765'
	'IVAIPO-PR765'
	'IVAIPA-PR525'
	'IVAIP1-PR069'
	'IVAIP1-PR000'
	'IV-IT1CAP765'
	'IV-IT2CAP765'
	'IV-IT3CAP765'
	'ITABER-SP765'
	'IT-TP1CAP765'
	'IT-TP2CAP765'
	'IT-TP3CAP765'
	'TPRETO-SP765'
	'TPRETO-SP500'
	'TPRETO-SP345'
	'TPRETO-SP069'
	'TPRET3-SP000'
	'TPRET4-SP000'
	'TPRET2-SP345'
	'RESEN2-RJ138'
	'FOZ500-PR500'
	'IBIUNA-SP345'
	'RESEND-RJ500'
	'VIANA--ES345'
	'VIANT1-ES013'
	'SB-SM1CAP500'
	'SB-SM2CAP500'
	'SB-SM3CAP500'
	'VIANT2-ES013'
	'VIANT3-ES013'
	'AS-AR1-SP500'
	'MARIMB-MG500'
	'ARARAQ-SP500'
	'P.CALD-MG500'
	'CAMPIN-SP500'
	'C.PAUL-SP500'
	'ANGRA--RJ500'
	'ADRIAN-RJ500'
	'GRAJAU-RJ500'
	'S.JOSE-RJ500'
	'BYPSAD-RJ500'
	'GR1T52-RJ000'
	'BA-IB1-PR500'
	'BA-IB2-PR500'
	'BA-IT1-PR500'
	'BA-IT1CAP500'
	'IMBTAP-RJ138'
	'BANDT4-GO000'
	'BANDT4-GO013'
	'P.CALD-MG345'
	'PCAT51-MG000'
	'IBIUNA-SP500'
	'CAMPIN-SP345'
	'CAMP51-SP000'
	'IB-BA1CAP500'
	'GUARUL-SP345'
	'MO-RL1-SP345'
	'MO-RL2-SP345'
	'MOGI---SP345'
	'IB-BA2CAP500'
	'M.MORA-MG345'
	'ADRT1A-RJ000'
	'LCBARR-SP345'
	'JACT1A-RJ000'
	'FURNAS-MG345'
	'JACT2A-RJ000'
	'ITUTIN-MG345'
	'ADRT51-RJ000'
	'ADRIAN-RJ345'
	'ADRT53-RJ000'
	'ADRT55-RJ000'
	'ADRT2B-RJ000'
	'JACARE-RJ345'
	'ADRT1B-RJ000'
	'ADRT2A-RJ000'
	'CAMPOS-RJ345'
	'CAMPO1-RJ000'
	'VITORI-ES345'
	'VITAT1-ES000'
	'VITAT2-ES000'
	'VITAT3-ES000'
	'VITAT2-ES013'
	'VITAT3-ES013'
	'VITAT4-ES013'
	'VITAT4-ES000'
	'JA-R30-RJ013'
	'JB-R60-RJ013'
	'MO-FCE-SP230'
	'CAMAT1-SP000'
	'CAMPI1-SP013'
	'PCAT02-MG000'
	'P.CAL2-MG013'
	'JACT1B-RJ000'
	'JA-R60-RJ013'
	'SJOSE2-RJ138'
	'P.CALD-MG138'
	'CAMPI1-SP138'
	'IMBARE-RJ138'
	'ADRIAN-RJ138'
	'R.LEAO-RJ138'
	'CAMPOS-RJ138'
	'CAMP54-SP000'
	'VITOR1-ES138'
	'GRAJAU-RJ138'
	'GR2T54-RJ000'
	'JACAR2-RJ138'
	'ANGDEF-RJ138'
	'FUNIL--RJ138'
	'C.PAUL-SP138'
	'S.CRUZ-RJ138'
	'ANGRA--RJ138'
	'CAMP54-SP013'
	'M.MORA-MG138'
	'BGERT1-DF000'
	'P.COL--MG138'
	'CAMPO1-RJ013'
	'ADRT55-RJ013'
	'ADRT53-RJ013'
	'CAMP51-SP013'
	'ADRT51-RJ013'
	'PCALAT-MG013'
	'VITAT1-ES013'
	'UCAMP1-RJ000'
	'RSIL-1UTE000'
	'UCAMP2-RJ000'
	'RSIL-2UTE000'
	'ADRT1B-RJ013'
	'ADRT2A-RJ013'
	'ADRT2B-RJ013'
	'BGERT1-DF013'
	'ADRT1A-RJ013'
	'ITUMBI-MG500'
	'CAMPO2-RJ000'
	'CAMPO2-RJ013'
	'MARIMB-MG345'
	'MARIMB-MG000'
	'P.COL--MG345'
	'ITUMBI-MG345'
	'BANDEI-GO345'
	'B.SUL--DF345'
	'CORUMB-GO345'
	'B.GERA-DF034'
	'BSULT6-DF000'
	'BANDT1-GO000'
	'BANDT2-GO000'
	'ITUMBI-MG230'
	'BANDEI-GO230'
	'B.GERA-DF230'
	'B.SUL--DF230'
	'B.ALTO-GO230'
	'S.MESA-GO230'
	'R.VERD-GO230'
	'BSULT6-DF013'
	'SAMAMB-DF500'
	'SAMAMB-DF345'
	'S.MESA-GO500'
	'B.SUL--DF138'
	'SAMAMB-DF138'
	'R.VERD-GO138'
	'S.MESA-GO138'
	'RVERT1-GO000'
	'RVERT1-GO013'
	'BANDT1-GO013'
	'BANDT2-GO013'
	'BSU-T7-DF000'
	'BSULT7-DF013'
	'MARIMB-MG013'
	'C.BRAV-GO138'
	'RBOIS-TAP138'
	'RCLARO-GO138'
	'NPECA2UHE002'
	'N.PECA-RJ138'
	'N.PECA-RJ230'
	'FONTE2UHE002'
	'FONTES-RJ138'
	'PPASSOUHE002'
	'PPASSO-RJ138'
	'I.POMBUHE004'
	'I.POMB-RJ138'
	'SCECIL-RJ013'
	'S.CEC-PCH138'
	'VIGARI-RJ013'
	'VIGARI-RJ138'
	'TAQUAR-RJ138'
	'VULCAN-RJ138'
	'S.CLAR-RJ138'
	'CPP----RJ138'
	'CFRTAP-RJ138'
	'CSN---UTE002'
	'CORDOV-RJ138'
...